PSSE/Dynamics/gen/7Bus.raw
0,   100.00, 33, 0, 1, 50.00     / PSS(R)E Xplore-33.5    TUE, FEB 16 2016   8:52


     1,'FPAND       ', 380.0000,1,   1,   1,   1,1.06959,   0.0173,1.10000,0.90000,1.10000,0.90000
     2,'FSSV        ', 380.0000,1,   1,   1,   1,1.06960,   0.0935,1.10000,0.90000,1.10000,0.90000
     3,'FSBIS       ', 380.0000,1,   1,   1,   1,1.06958,  -0.0035,1.10000,0.90000,1.10000,0.90000
     4,'FTDPRA      ', 380.0000,1,   1,   1,   1,1.06959,  -0.0174,1.10000,0.90000,1.10000,0.90000
     5,'FTILL       ', 380.0000,1,   1,   1,   1,1.06957,   0.0034,1.10000,0.90000,1.10000,0.90000
     6,'FVALDI      ', 380.0000,1,   1,   1,   1,1.06960,   0.0311,1.10000,0.90000,1.10000,0.90000
     7,'FVERGE      ', 380.0000,1,   1,   1,   1,1.06960,  -0.0000,1.10000,0.90000,1.10000,0.90000
    21,'FSSVG       ',  24.0000,2,   1,   1,   1,0.98988,   7.3091,1.10000,0.90000,1.10000,0.90000
    61,'FVALDIG     ',  20.0000,2,   1,   1,   1,1.00595,   2.5534,1.10000,0.90000,1.10000,0.90000
    71,'FVERGTG     ',  24.0000,3,   1,   1,   1,0.98030,  -0.0010,1.10000,0.90000,1.10000,0.90000
0 / END OF BUS DATA, BEGIN LOAD DATA
     1,'1 ',1,   1,   1,   240.000,     2.400,     0.000,     0.000,     0.000,     0.000,   1,1,0
     3,'1 ',1,   1,   1,   240.000,     2.400,     0.000,     0.000,     0.000,     0.000,   1,1,0
     4,'1 ',1,   1,   1,   480.000,     4.800,     0.000,     0.000,     0.000,     0.000,   1,1,0
     5,'1 ',1,   1,   1,   480.000,     4.800,     0.000,     0.000,     0.000,     0.000,   1,1,0
0 / END OF LOAD DATA, BEGIN FIXED SHUNT DATA
0 / END OF FIXED SHUNT DATA, BEGIN GENERATOR DATA
    21,'1 ',   962.200,   124.763,   200.000,  -200.000,1.06960,     2,  1078.000, 3.44000E-3, 2.89000E-1, 0.00000E+0, 0.00000E+0,1.00000,1,  100.0,  1200.000,   400.000,   1,1.0000
    61,'1 ',   480.428,    27.609,   200.000,  -200.000,1.06960,     6,  1710.000, 3.27500E-3, 3.67000E-1, 0.00000E+0, 0.00000E+0,1.00000,1,  100.0,  1200.000,   400.000,   1,1.0000
    71,'1 ',    -0.000,     7.038,   200.000,  -200.000,0.98030,     0,  1211.000, 2.79600E-3, 2.64000E-1, 0.00000E+0, 0.00000E+0,1.00000,1,  100.0,   600.000,     0.000,   1,1.0000
0 / END OF GENERATOR DATA, BEGIN BRANCH DATA
     1,     2,'1 ', 6.00000E-6, 6.92000E-4,   0.00000,    0.00,    0.00,    0.00,  0.00000,  0.00000,  0.00000,  0.00000,1,2,   0.00,   1,1.0000
     1,     2,'2 ', 6.00000E-6, 6.92000E-4,   0.00000,    0.00,    0.00,    0.00,  0.00000,  0.00000,  0.00000,  0.00000,1,2,   0.00,   1,1.0000
     1,     7,'1 ', 6.00000E-6, 6.92000E-4,   0.00000,    0.00,    0.00,    0.00,  0.00000,  0.00000,  0.00000,  0.00000,1,1,   0.00,   1,1.0000
     1,     7,'2 ', 6.00000E-6, 6.92000E-4,   0.00000,    0.00,    0.00,    0.00,  0.00000,  0.00000,  0.00000,  0.00000,1,1,   0.00,   1,1.0000
     2,     5,'1 ', 6.00000E-6, 6.92000E-4,   0.00000,    0.00,    0.00,    0.00,  0.00000,  0.00000,  0.00000,  0.00000,1,1,   0.00,   1,1.0000
     2,     5,'2 ', 6.00000E-6, 6.92000E-4,   0.00000,    0.00,    0.00,    0.00,  0.00000,  0.00000,  0.00000,  0.00000,1,1,   0.00,   1,1.0000
     3,     5,'1 ', 6.00000E-6, 6.92000E-4,   0.00000,    0.00,    0.00,    0.00,  0.00000,  0.00000,  0.00000,  0.00000,1,2,   0.00,   1,1.0000
     3,     5,'2 ', 6.00000E-6, 6.92000E-4,   0.00000,    0.00,    0.00,    0.00,  0.00000,  0.00000,  0.00000,  0.00000,1,1,   0.00,   1,1.0000
     3,     6,'1 ', 6.00000E-6, 6.92000E-4,   0.00000,    0.00,    0.00,    0.00,  0.00000,  0.00000,  0.00000,  0.00000,1,1,   0.00,   1,1.0000
     3,     6,'2 ', 6.00000E-6, 6.92000E-4,   0.00000,    0.00,    0.00,    0.00,  0.00000,  0.00000,  0.00000,  0.00000,1,1,   0.00,   1,1.0000
     4,     6,'1 ', 6.00000E-6, 6.92000E-4,   0.00000,    0.00,    0.00,    0.00,  0.00000,  0.00000,  0.00000,  0.00000,1,2,   0.00,   1,1.0000
     4,     6,'2 ', 6.00000E-6, 6.92000E-4,   0.00000,    0.00,    0.00,    0.00,  0.00000,  0.00000,  0.00000,  0.00000,1,1,   0.00,   1,1.0000
     4,     7,'1 ', 6.00000E-6, 6.92000E-4,   0.00000,    0.00,    0.00,    0.00,  0.00000,  0.00000,  0.00000,  0.00000,1,1,   0.00,   1,1.0000
     4,     7,'2 ', 6.00000E-6, 6.92000E-4,   0.00000,    0.00,    0.00,    0.00,  0.00000,  0.00000,  0.00000,  0.00000,1,1,   0.00,   1,1.0000
0 / END OF BRANCH DATA, BEGIN TRANSFORMER DATA
     1,     4,     0,'1 ',1,1,1, 0.00000E+0, 0.00000E+0,2,'            ',1,   1,1.0000,   0,1.0000,   0,1.0000,   0,1.0000,'            '
 6.92521E-6, 6.93000E-4,   658.20
1.00000,   0.000,   0.000,   658.18,   658.18,   658.18, 0,      0, 9.16725,-9.16724, 1.10000, 0.90000,  33, 0, 0.00000, 0.00000,  0.000
1.00000,   0.000
    21,     2,     0,'1 ',1,2,1, 0.00000E+0, 0.00000E+0,1,'            ',1,   1,1.0000,   0,1.0000,   0,1.0000,   0,1.0000,'            '
 2.50000E-3, 1.37000E-1,  1080.00
1.00000,  24.000,   0.000,  1080.00,  1080.00,  1080.00, 0,      0, 1.10000, 0.90000, 1.10000, 0.90000,  33, 0, 0.00000, 0.00000,  0.000
1.09211, 415.000
    61,     6,     0,'1 ',1,2,1, 0.00000E+0, 0.00000E+0,1,'            ',1,   1,1.0000,   0,1.0000,   0,1.0000,   0,1.0000,'            '
 2.90000E-3, 1.58300E-1,  1710.00
1.00000,  20.000,   0.000,  1710.00,  1710.00,  1710.00, 0,      0, 1.10000, 0.90000, 1.10000, 0.90000,  33, 0, 0.00000, 0.00000,  0.000
1.06579, 405.000
    71,     7,     0,'1 ',1,2,1, 0.00000E+0, 0.00000E+0,1,'            ',1,   1,1.0000,   0,1.0000,   0,1.0000,   0,1.0000,'            '
 2.50000E-3, 1.36200E-1,  1080.00
1.00000,  24.000,   0.000,  1080.00,  1080.00,  1080.00, 0,      0, 1.10000, 0.90000, 1.10000, 0.90000,  33, 0, 0.00000, 0.00000,  0.000
1.09211, 415.000
0 / END OF TRANSFORMER DATA, BEGIN AREA DATA
0 / END OF AREA DATA, BEGIN TWO-TERMINAL DC DATA
0 / END OF TWO-TERMINAL DC DATA, BEGIN VSC DC LINE DATA
0 / END OF VSC DC LINE DATA, BEGIN IMPEDANCE CORRECTION DATA
0 / END OF IMPEDANCE CORRECTION DATA, BEGIN MULTI-TERMINAL DC DATA
0 / END OF MULTI-TERMINAL DC DATA, BEGIN MULTI-SECTION LINE DATA
0 / END OF MULTI-SECTION LINE DATA, BEGIN ZONE DATA
0 / END OF ZONE DATA, BEGIN INTER-AREA TRANSFER DATA
0 / END OF INTER-AREA TRANSFER DATA, BEGIN OWNER DATA
0 / END OF OWNER DATA, BEGIN FACTS DEVICE DATA
0 / END OF FACTS DEVICE DATA, BEGIN SWITCHED SHUNT DATA
0 / END OF SWITCHED SHUNT DATA, BEGIN GNE DATA
0 / END OF GNE DATA, BEGIN INDUCTION MACHINE DATA
0 / END OF INDUCTION MACHINE DATA
Q
